Version 4
SHEET 1 880 680
WIRE 48 160 48 144
WIRE 160 160 144 160
WIRE 368 160 336 160
WIRE 144 176 144 160
WIRE 240 176 224 176
WIRE 448 176 432 176
WIRE 464 176 448 176
WIRE 160 192 144 192
WIRE 368 192 352 192
WIRE 144 208 144 192
WIRE 240 272 240 256
WIRE 256 272 240 272
WIRE 352 272 352 192
WIRE 448 272 448 256
WIRE 448 272 352 272
WIRE 240 288 240 272
WIRE 448 288 448 272
FLAG 48 240 0
FLAG 144 176 0
FLAG 256 272 Open_Loop
FLAG 48 144 Vin
FLAG 464 176 Closed_Loop
FLAG 336 160 Vin
FLAG 240 368 0
FLAG 144 208 Vin
FLAG 448 368 0
SYMBOL voltage 48 144 R0
WINDOW 123 24 110 Left 2
WINDOW 39 0 0 Left 2
SYMATTR Value2 AC 1
SYMATTR InstName V1
SYMATTR Value 0
SYMBOL single_stage_opamp 192 176 R0
WINDOW 39 -32 -46 Left 2
SYMATTR SpiceLine gm=1m ro=100k c=100p
SYMATTR InstName X1
SYMBOL single_stage_opamp 400 176 R0
WINDOW 39 -30 -45 Left 2
SYMATTR SpiceLine gm=1m ro=100k c=100p
SYMATTR InstName X2
SYMBOL res 224 160 R0
SYMATTR InstName R1
SYMATTR Value {X}
SYMBOL res 224 272 R0
SYMATTR InstName R2
SYMATTR Value 10Meg
SYMBOL res 432 160 R0
SYMATTR InstName R3
SYMATTR Value {X}
SYMBOL res 432 272 R0
SYMATTR InstName R4
SYMATTR Value 10Meg
TEXT 16 272 Left 2 !.ac dec 10k 100 1G
TEXT -32 296 Left 2 !.step param X list 10Meg 50Meg 100Meg
